Abaqus
Anaconda
ANSYS-Fluent
ArcGIS
Comsol
FFTW
Fortran
Gaussian
GROMACS
Gurobi
HPCC
Java
LAMMPS
LAPACK
LaPlace
Lumerical
Mathematica
Matlab
Matplotlib
Mpi4py
NAMD
OpenFOAM
MPI
Paraview
Python
Python-Anaconda
Python-htseq
QuantumATK
R
ScaLAPACK
Singularity
TAU
Tecplot
TELEMAC-MASCARET
TensorFlow
VASP
VALET
WRF